13
 
Fe    0.00000    0.00000    0.00000
C     0.00000   -0.02851    2.31482
O     0.00000   -0.08451    3.44082
C     2.20504    0.00000    0.00000
O     3.33304    0.00000    0.00000
C    -2.20504    0.00000    0.00000
O    -3.33304    0.00000    0.00000
C     0.00000    0.02851   -2.31482
O     0.00000    0.08451   -3.44082
C     0.00000   -2.20483    0.02705
O     0.00000   -3.32983    0.08305
C     0.00000    2.20483   -0.02705
O     0.00000    3.32983   -0.08305
