13
 
Fe    0.00000    0.00000    0.00000
C     0.00000   -0.02894    2.34982
O     0.00000   -0.08494    3.47582
C     2.24004    0.00000    0.00000
O     3.36804    0.00000    0.00000
C    -2.24004    0.00000    0.00000
O    -3.36804    0.00000    0.00000
C     0.00000    0.02894   -2.34982
O     0.00000    0.08494   -3.47582
C     0.00000   -2.23983    0.02748
O     0.00000   -3.36483    0.08348
C     0.00000    2.23983   -0.02748
O     0.00000    3.36483   -0.08348
