13
 
Fe    0.00000    0.00000    0.00000
C     0.00000   -0.02900    2.35482
O     0.00000   -0.08500    3.48082
C     2.24504    0.00000    0.00000
O     3.37304    0.00000    0.00000
C    -2.24504    0.00000    0.00000
O    -3.37304    0.00000    0.00000
C     0.00000    0.02900   -2.35482
O     0.00000    0.08500   -3.48082
C     0.00000   -2.24483    0.02754
O     0.00000   -3.36983    0.08354
C     0.00000    2.24483   -0.02754
O     0.00000    3.36983   -0.08354
