13
 
Fe    0.00000    0.00000    0.00000
C     0.00000   -0.02906    2.35982
O     0.00000   -0.08506    3.48582
C     2.25004    0.00000    0.00000
O     3.37804    0.00000    0.00000
C    -2.25004    0.00000    0.00000
O    -3.37804    0.00000    0.00000
C     0.00000    0.02906   -2.35982
O     0.00000    0.08506   -3.48582
C     0.00000   -2.24983    0.02760
O     0.00000   -3.37483    0.08360
C     0.00000    2.24983   -0.02760
O     0.00000    3.37483   -0.08360
