13
 
Fe    0.00000    0.00000    0.00000
C     0.00000   -0.02925    2.37482
O     0.00000   -0.08525    3.50082
C     2.26504    0.00000    0.00000
O     3.39304    0.00000    0.00000
C    -2.26504    0.00000    0.00000
O    -3.39304    0.00000    0.00000
C     0.00000    0.02925   -2.37482
O     0.00000    0.08525   -3.50082
C     0.00000   -2.26483    0.02779
O     0.00000   -3.38983    0.08379
C     0.00000    2.26483   -0.02779
O     0.00000    3.38983   -0.08379
