13
 
Fe    0.00000    0.00000    0.00000
C     0.00000   -0.02962    2.40482
O     0.00000   -0.08562    3.53082
C     2.29504    0.00000    0.00000
O     3.42304    0.00000    0.00000
C    -2.29504    0.00000    0.00000
O    -3.42304    0.00000    0.00000
C     0.00000    0.02962   -2.40482
O     0.00000    0.08562   -3.53082
C     0.00000   -2.29483    0.02816
O     0.00000   -3.41983    0.08416
C     0.00000    2.29483   -0.02816
O     0.00000    3.41983   -0.08416
