13
 
Fe    0.00000    0.00000    0.00000
C     0.00000   -0.02986    2.42482
O     0.00000   -0.08586    3.55082
C     2.31504    0.00000    0.00000
O     3.44304    0.00000    0.00000
C    -2.31504    0.00000    0.00000
O    -3.44304    0.00000    0.00000
C     0.00000    0.02986   -2.42482
O     0.00000    0.08586   -3.55082
C     0.00000   -2.31482    0.02840
O     0.00000   -3.43982    0.08440
C     0.00000    2.31482   -0.02840
O     0.00000    3.43982   -0.08440
