13
 
Fe    0.00000    0.00000    0.00000
C     0.00000   -0.02980    2.41982
O     0.00000   -0.08580    3.54582
C     2.31004    0.00000    0.00000
O     3.43804    0.00000    0.00000
C    -2.31004    0.00000    0.00000
O    -3.43804    0.00000    0.00000
C     0.00000    0.02980   -2.41982
O     0.00000    0.08580   -3.54582
C     0.00000   -2.30982    0.02834
O     0.00000   -3.43482    0.08434
C     0.00000    2.30982   -0.02834
O     0.00000    3.43482   -0.08434
