13
 
Fe    0.00000    0.00000    0.00000
C     0.00000   -0.02999    2.43482
O     0.00000   -0.08599    3.56082
C     2.32504    0.00000    0.00000
O     3.45304    0.00000    0.00000
C    -2.32504    0.00000    0.00000
O    -3.45304    0.00000    0.00000
C     0.00000    0.02999   -2.43482
O     0.00000    0.08599   -3.56082
C     0.00000   -2.32482    0.02852
O     0.00000   -3.44982    0.08452
C     0.00000    2.32482   -0.02852
O     0.00000    3.44982   -0.08452
