19
 
Fe   -1.68450   -0.72070   -0.13860
O    -1.83478    1.22496   -0.25630
H    -2.74188    1.57916   -0.16000
H    -1.24378    1.85396    0.20090
O     0.26206   -0.69213    0.04076
H     0.70356   -1.55833   -0.07094
H     0.84606   -0.02993   -0.37674
O    -3.63467   -0.70566   -0.27425
H    -4.23527   -1.16866    0.34125
H    -3.99097   -0.85686   -1.17305
O    -1.48910   -2.66445   -0.06361
H    -1.87270   -3.28435   -0.71351
H    -1.63490   -3.06405    0.81779
O    -1.68941   -0.81995    1.81388
H    -0.82621   -0.64795    2.24178
H    -2.36641   -0.41035    2.38638
O    -1.72169   -0.66746   -2.09248
H    -1.23449   -1.28436   -2.67218
H    -1.61709    0.22204   -2.48688
