19
 
Fe   -1.68450   -0.72070   -0.13860
O    -1.83555    1.23491   -0.25690
H    -2.74265    1.58911   -0.16060
H    -1.24455    1.86391    0.20030
O     0.27202   -0.69198    0.04167
H     0.71352   -1.55818   -0.07003
H     0.85602   -0.02978   -0.37583
O    -3.64465   -0.70558   -0.27494
H    -4.24525   -1.16858    0.34056
H    -4.00095   -0.85678   -1.17374
O    -1.48810   -2.67440   -0.06323
H    -1.87170   -3.29430   -0.71313
H    -1.63390   -3.07400    0.81817
O    -1.68944   -0.82046    1.82386
H    -0.82624   -0.64846    2.25176
H    -2.36644   -0.41086    2.39636
O    -1.72189   -0.66719   -2.10247
H    -1.23469   -1.28409   -2.68217
H    -1.61729    0.22231   -2.49687
