19
 
Fe   -1.68450   -0.72070   -0.13860
O    -1.83594    1.23989   -0.25720
H    -2.74304    1.59409   -0.16090
H    -1.24494    1.86889    0.20000
O     0.27700   -0.69191    0.04213
H     0.71850   -1.55811   -0.06957
H     0.86100   -0.02971   -0.37537
O    -3.64963   -0.70555   -0.27529
H    -4.25023   -1.16855    0.34021
H    -4.00593   -0.85675   -1.17409
O    -1.48760   -2.67937   -0.06303
H    -1.87120   -3.29927   -0.71293
H    -1.63340   -3.07897    0.81837
O    -1.68945   -0.82071    1.82886
H    -0.82625   -0.64871    2.25676
H    -2.36645   -0.41111    2.40136
O    -1.72198   -0.66706   -2.10747
H    -1.23478   -1.28396   -2.68717
H    -1.61738    0.22244   -2.50187
