19
 
Fe   -1.68450   -0.72070   -0.13860
O    -1.83747    1.25979   -0.25841
H    -2.74457    1.61399   -0.16211
H    -1.24647    1.88879    0.19879
O     0.29691   -0.69162    0.04397
H     0.73841   -1.55782   -0.06773
H     0.88091   -0.02942   -0.37353
O    -3.66958   -0.70539   -0.27667
H    -4.27018   -1.16839    0.33883
H    -4.02588   -0.85659   -1.17547
O    -1.48560   -2.69925   -0.06227
H    -1.86920   -3.31915   -0.71217
H    -1.63140   -3.09885    0.81913
O    -1.68950   -0.82173    1.84883
H    -0.82630   -0.64973    2.27673
H    -2.36650   -0.41213    2.42133
O    -1.72236   -0.66651   -2.12746
H    -1.23516   -1.28341   -2.70716
H    -1.61776    0.22299   -2.52186
