19
 
Fe   -1.68450   -0.72070   -0.13860
O    -1.83863    1.27472   -0.25931
H    -2.74573    1.62892   -0.16301
H    -1.24763    1.90372    0.19789
O     0.31184   -0.69140    0.04534
H     0.75334   -1.55760   -0.06636
H     0.89584   -0.02920   -0.37216
O    -3.68455   -0.70528   -0.27771
H    -4.28515   -1.16828    0.33779
H    -4.04085   -0.85648   -1.17651
O    -1.48410   -2.71417   -0.06169
H    -1.86770   -3.33407   -0.71159
H    -1.62990   -3.11377    0.81971
O    -1.68954   -0.82249    1.86381
H    -0.82634   -0.65049    2.29171
H    -2.36654   -0.41289    2.43631
O    -1.72265   -0.66610   -2.14245
H    -1.23545   -1.28300   -2.72215
H    -1.61805    0.22340   -2.53685
