19
 
Fe   -1.68450   -0.72070   -0.13860
O    -1.83824    1.26974   -0.25901
H    -2.74534    1.62394   -0.16271
H    -1.24724    1.89874    0.19819
O     0.30687   -0.69147    0.04489
H     0.74837   -1.55767   -0.06681
H     0.89087   -0.02927   -0.37261
O    -3.67956   -0.70532   -0.27737
H    -4.28016   -1.16832    0.33813
H    -4.03586   -0.85652   -1.17617
O    -1.48460   -2.70919   -0.06188
H    -1.86820   -3.32909   -0.71178
H    -1.63040   -3.10879    0.81952
O    -1.68953   -0.82224    1.85882
H    -0.82633   -0.65024    2.28672
H    -2.36653   -0.41264    2.43132
O    -1.72255   -0.66624   -2.13745
H    -1.23535   -1.28314   -2.71715
H    -1.61795    0.22326   -2.53185
