19
 
Fe   -1.68450   -0.72070   -0.13860
O    -1.83901    1.27970   -0.25961
H    -2.74611    1.63390   -0.16331
H    -1.24801    1.90870    0.19759
O     0.31682   -0.69132    0.04580
H     0.75832   -1.55752   -0.06590
H     0.90082   -0.02912   -0.37170
O    -3.68953   -0.70524   -0.27806
H    -4.29013   -1.16824    0.33744
H    -4.04583   -0.85644   -1.17686
O    -1.48360   -2.71914   -0.06150
H    -1.86720   -3.33904   -0.71140
H    -1.62940   -3.11874    0.81990
O    -1.68955   -0.82275    1.86880
H    -0.82635   -0.65075    2.29670
H    -2.36655   -0.41315    2.44130
O    -1.72274   -0.66597   -2.14745
H    -1.23554   -1.28287   -2.72715
H    -1.61814    0.22353   -2.54185
