19
 
Fe   -1.68450   -0.72070   -0.13860
O    -1.83940    1.28467   -0.25991
H    -2.74650    1.63887   -0.16361
H    -1.24840    1.91367    0.19729
O     0.32180   -0.69125    0.04626
H     0.76330   -1.55745   -0.06544
H     0.90580   -0.02905   -0.37124
O    -3.69452   -0.70520   -0.27841
H    -4.29512   -1.16820    0.33709
H    -4.05082   -0.85640   -1.17721
O    -1.48311   -2.72411   -0.06131
H    -1.86671   -3.34401   -0.71121
H    -1.62891   -3.12371    0.82009
O    -1.68956   -0.82300    1.87380
H    -0.82636   -0.65100    2.30170
H    -2.36656   -0.41340    2.44630
O    -1.72284   -0.66583   -2.15244
H    -1.23564   -1.28273   -2.73214
H    -1.61824    0.22367   -2.54684
