19
 
Fe   -1.68450   -0.72070   -0.13860
O    -1.84016    1.29462   -0.26051
H    -2.74726    1.64882   -0.16421
H    -1.24916    1.92362    0.19669
O     0.33176   -0.69110    0.04718
H     0.77326   -1.55730   -0.06452
H     0.91576   -0.02890   -0.37032
O    -3.70450   -0.70512   -0.27910
H    -4.30510   -1.16812    0.33640
H    -4.06080   -0.85632   -1.17790
O    -1.48211   -2.73405   -0.06092
H    -1.86571   -3.35395   -0.71082
H    -1.62791   -3.13365    0.82048
O    -1.68959   -0.82351    1.88379
H    -0.82639   -0.65151    2.31169
H    -2.36659   -0.41391    2.45629
O    -1.72303   -0.66556   -2.16244
H    -1.23583   -1.28246   -2.74214
H    -1.61843    0.22394   -2.55684
