19
 
Fe   -1.68450   -0.72050   -0.13860
O    -1.72155    1.39836   -0.07975
H    -2.23395    2.03436   -0.61225
H    -1.17895    1.92816    0.53405
O     0.42412   -0.55775   -0.12631
H     1.08942   -1.03105    0.40649
H     0.91832    0.05675   -0.70081
O    -3.79302   -0.88446   -0.15220
H    -4.28742   -1.49696    0.42440
H    -4.45862   -0.41076   -0.68430
O    -1.64785   -2.83936   -0.19665
H    -2.19155   -3.36856   -0.81015
H    -1.13245   -3.47586    0.33235
O    -1.82797   -0.65497    1.94041
H    -1.32497   -1.13687    2.62251
H    -2.46457   -0.08937    2.41671
O    -1.54084   -0.78583   -2.21761
H    -0.90174   -1.34893   -2.69341
H    -2.04824   -0.30923   -2.90021
