19
 
Fe   -1.68450   -0.72050   -0.13860
O    -1.72234    1.44333   -0.07850
H    -2.23474    2.07933   -0.61100
H    -1.17974    1.97313    0.53530
O     0.46899   -0.55429   -0.12605
H     1.13429   -1.02759    0.40675
H     0.96319    0.06021   -0.70055
O    -3.83789   -0.88795   -0.15249
H    -4.33229   -1.50045    0.42411
H    -4.50349   -0.41425   -0.68459
O    -1.64708   -2.88433   -0.19788
H    -2.19078   -3.41353   -0.81138
H    -1.13168   -3.52083    0.33112
O    -1.83106   -0.65356    1.98528
H    -1.32806   -1.13546    2.66738
H    -2.46766   -0.08796    2.46158
O    -1.53773   -0.78724   -2.26248
H    -0.89863   -1.35034   -2.73828
H    -2.04513   -0.31064   -2.94508
