19
 
Fe   -1.68450   -0.72050   -0.13860
O    -1.72260    1.45833   -0.07808
H    -2.23500    2.09433   -0.61058
H    -1.18000    1.98813    0.53572
O     0.48394   -0.55313   -0.12596
H     1.14924   -1.02643    0.40684
H     0.97814    0.06137   -0.70046
O    -3.85284   -0.88911   -0.15258
H    -4.34724   -1.50161    0.42402
H    -4.51844   -0.41541   -0.68468
O    -1.64682   -2.89933   -0.19829
H    -2.19052   -3.42853   -0.81179
H    -1.13142   -3.53583    0.33071
O    -1.83209   -0.65309    2.00024
H    -1.32909   -1.13499    2.68234
H    -2.46869   -0.08749    2.47654
O    -1.53670   -0.78771   -2.27744
H    -0.89760   -1.35081   -2.75324
H    -2.04410   -0.31111   -2.96004
