19
 
Fe   -1.68450   -0.72050   -0.13860
O    -1.72251    1.45333   -0.07822
H    -2.23491    2.08933   -0.61072
H    -1.17991    1.98313    0.53558
O     0.47896   -0.55352   -0.12599
H     1.14426   -1.02682    0.40681
H     0.97316    0.06098   -0.70049
O    -3.84786   -0.88872   -0.15255
H    -4.34226   -1.50122    0.42405
H    -4.51346   -0.41502   -0.68465
O    -1.64690   -2.89433   -0.19815
H    -2.19060   -3.42353   -0.81165
H    -1.13150   -3.53083    0.33085
O    -1.83175   -0.65324    1.99525
H    -1.32875   -1.13514    2.67735
H    -2.46835   -0.08764    2.47155
O    -1.53705   -0.78755   -2.27245
H    -0.89795   -1.35065   -2.74825
H    -2.04445   -0.31095   -2.95505
