19
 
Fe   -1.68450   -0.72050   -0.13860
O    -1.72268    1.46332   -0.07794
H    -2.23508    2.09932   -0.61044
H    -1.18008    1.99312    0.53586
O     0.48893   -0.55275   -0.12594
H     1.15423   -1.02605    0.40686
H     0.98313    0.06175   -0.70044
O    -3.85782   -0.88950   -0.15261
H    -4.35222   -1.50200    0.42399
H    -4.52342   -0.41580   -0.68471
O    -1.64673   -2.90432   -0.19843
H    -2.19043   -3.43352   -0.81193
H    -1.13133   -3.54082    0.33057
O    -1.83244   -0.65293    2.00523
H    -1.32944   -1.13483    2.68733
H    -2.46904   -0.08733    2.48153
O    -1.53636   -0.78787   -2.28243
H    -0.89726   -1.35097   -2.75823
H    -2.04376   -0.31127   -2.96503
