13
 
Fe    0.00000    0.00000    0.00000
C     0.00000    0.00000    1.87500
O     0.00000    0.00000    3.00500
C     1.87500    0.00000    0.00000
O     3.00500    0.00000    0.00000
C    -1.87500    0.00000    0.00000
O    -3.00500    0.00000    0.00000
C     0.00000    0.00000   -1.87500
O     0.00000    0.00000   -3.00500
C     0.00000   -1.87500    0.00000
O     0.00000   -3.00500    0.00000
C     0.00000    1.87500    0.00000
O     0.00000    3.00500    0.00000
