13
 
Fe    0.00000    0.00000    0.00000
C     0.00000    0.00000    1.88500
O     0.00000    0.00000    3.01500
C     1.88500    0.00000    0.00000
O     3.01500    0.00000    0.00000
C    -1.88500    0.00000    0.00000
O    -3.01500    0.00000    0.00000
C     0.00000    0.00000   -1.88500
O     0.00000    0.00000   -3.01500
C     0.00000   -1.88500    0.00000
O     0.00000   -3.01500    0.00000
C     0.00000    1.88500    0.00000
O     0.00000    3.01500    0.00000
