13
 
Fe    0.00000    0.00000    0.00000
C     0.00000    0.00000    1.89500
O     0.00000    0.00000    3.02500
C     1.89500    0.00000    0.00000
O     3.02500    0.00000    0.00000
C    -1.89500    0.00000    0.00000
O    -3.02500    0.00000    0.00000
C     0.00000    0.00000   -1.89500
O     0.00000    0.00000   -3.02500
C     0.00000   -1.89500    0.00000
O     0.00000   -3.02500    0.00000
C     0.00000    1.89500    0.00000
O     0.00000    3.02500    0.00000
