13
 
Fe    0.00000    0.00000    0.00000
C     0.00000    0.00000    1.89000
O     0.00000    0.00000    3.02000
C     1.89000    0.00000    0.00000
O     3.02000    0.00000    0.00000
C    -1.89000    0.00000    0.00000
O    -3.02000    0.00000    0.00000
C     0.00000    0.00000   -1.89000
O     0.00000    0.00000   -3.02000
C     0.00000   -1.89000    0.00000
O     0.00000   -3.02000    0.00000
C     0.00000    1.89000    0.00000
O     0.00000    3.02000    0.00000
