13
 
Fe    0.00000    0.00000    0.00000
C     0.00000    0.00000    1.91000
O     0.00000    0.00000    3.04000
C     1.91000    0.00000    0.00000
O     3.04000    0.00000    0.00000
C    -1.91000    0.00000    0.00000
O    -3.04000    0.00000    0.00000
C     0.00000    0.00000   -1.91000
O     0.00000    0.00000   -3.04000
C     0.00000   -1.91000    0.00000
O     0.00000   -3.04000    0.00000
C     0.00000    1.91000    0.00000
O     0.00000    3.04000    0.00000
