13
 
Fe    0.00000    0.00000    0.00000
C     0.00000    0.00000    1.93000
O     0.00000    0.00000    3.06000
C     1.93000    0.00000    0.00000
O     3.06000    0.00000    0.00000
C    -1.93000    0.00000    0.00000
O    -3.06000    0.00000    0.00000
C     0.00000    0.00000   -1.93000
O     0.00000    0.00000   -3.06000
C     0.00000   -1.93000    0.00000
O     0.00000   -3.06000    0.00000
C     0.00000    1.93000    0.00000
O     0.00000    3.06000    0.00000
