13
 
Fe    0.00000    0.00000    0.00000
C     0.00000    0.00000    1.94000
O     0.00000    0.00000    3.07000
C     1.94000    0.00000    0.00000
O     3.07000    0.00000    0.00000
C    -1.94000    0.00000    0.00000
O    -3.07000    0.00000    0.00000
C     0.00000    0.00000   -1.94000
O     0.00000    0.00000   -3.07000
C     0.00000   -1.94000    0.00000
O     0.00000   -3.07000    0.00000
C     0.00000    1.94000    0.00000
O     0.00000    3.07000    0.00000
