13
 
Fe    0.00000    0.00000    0.00000
C     0.00000    0.00000    1.95000
O     0.00000    0.00000    3.08000
C     1.95000    0.00000    0.00000
O     3.08000    0.00000    0.00000
C    -1.95000    0.00000    0.00000
O    -3.08000    0.00000    0.00000
C     0.00000    0.00000   -1.95000
O     0.00000    0.00000   -3.08000
C     0.00000   -1.95000    0.00000
O     0.00000   -3.08000    0.00000
C     0.00000    1.95000    0.00000
O     0.00000    3.08000    0.00000
