25
 
Fe   -1.68250   -0.56100   -0.00080
N    -1.74139    1.49810    0.01468
H    -2.40149    1.87670    0.69408
H    -0.85449    1.94660    0.24468
H    -2.01999    1.92530   -0.86882
N     0.37660   -0.50362    0.01719
H     0.78750   -0.25032    0.91589
H     0.83170   -1.38222   -0.23121
H     0.76500    0.17348   -0.63951
N    -3.74160   -0.57688   -0.05969
H    -4.15390   -1.47718   -0.30489
H    -4.19680   -0.31948    0.81621
H    -4.12850    0.07412   -0.74319
N    -1.66090   -2.62070    0.02432
H    -2.39160   -3.02400    0.61082
H    -1.79480   -3.06060   -0.88628
H    -0.79880   -3.03320    0.38102
N    -1.70541   -0.58260    2.05900
H    -0.98011   -1.17510    2.46330
H    -1.56331    0.32740    2.49750
H    -2.57081   -0.93090    2.47180
N    -1.62221   -0.58009   -2.05980
H    -0.95691   -1.25539   -2.43650
H    -2.50711   -0.81779   -2.50820
H    -1.35011    0.30451   -2.48880
