25
 
Fe   -1.68250   -0.56100   -0.00080
N    -1.74167    1.50810    0.01475
H    -2.40177    1.88670    0.69415
H    -0.85477    1.95660    0.24475
H    -2.02027    1.93530   -0.86875
N     0.38660   -0.50334    0.01727
H     0.79750   -0.25004    0.91597
H     0.84170   -1.38194   -0.23113
H     0.77500    0.17376   -0.63943
N    -3.75160   -0.57695   -0.05997
H    -4.16390   -1.47725   -0.30517
H    -4.20680   -0.31955    0.81593
H    -4.13850    0.07405   -0.74347
N    -1.66079   -2.63070    0.02444
H    -2.39149   -3.03400    0.61094
H    -1.79469   -3.07060   -0.88616
H    -0.79869   -3.04320    0.38114
N    -1.70552   -0.58271    2.06900
H    -0.98022   -1.17521    2.47330
H    -1.56342    0.32729    2.50750
H    -2.57092   -0.93101    2.48180
N    -1.62191   -0.58019   -2.06979
H    -0.95661   -1.25549   -2.44649
H    -2.50681   -0.81789   -2.51819
H    -1.34981    0.30441   -2.49879
