25
 
Fe   -1.68250   -0.56100   -0.00080
N    -1.74239    1.53308    0.01494
H    -2.40249    1.91168    0.69434
H    -0.85549    1.98158    0.24494
H    -2.02099    1.96028   -0.86856
N     0.41158   -0.50265    0.01749
H     0.82248   -0.24935    0.91619
H     0.86668   -1.38125   -0.23091
H     0.79998    0.17445   -0.63921
N    -3.77658   -0.57715   -0.06069
H    -4.18888   -1.47745   -0.30589
H    -4.23178   -0.31975    0.81521
H    -4.16348    0.07385   -0.74419
N    -1.66053   -2.65570    0.02475
H    -2.39123   -3.05900    0.61125
H    -1.79443   -3.09560   -0.88585
H    -0.79843   -3.06820    0.38145
N    -1.70580   -0.58297    2.09400
H    -0.98050   -1.17547    2.49830
H    -1.56370    0.32703    2.53250
H    -2.57120   -0.93127    2.50680
N    -1.62118   -0.58042   -2.09478
H    -0.95588   -1.25572   -2.47148
H    -2.50608   -0.81812   -2.54318
H    -1.34908    0.30418   -2.52378
