25
 
Fe   -1.68250   -0.56100   -0.00080
N    -1.74267    1.54308    0.01501
H    -2.40277    1.92168    0.69441
H    -0.85577    1.99158    0.24501
H    -2.02127    1.97028   -0.86849
N     0.42158   -0.50237    0.01758
H     0.83248   -0.24907    0.91628
H     0.87668   -1.38097   -0.23082
H     0.80998    0.17473   -0.63912
N    -3.78658   -0.57722   -0.06097
H    -4.19888   -1.47752   -0.30617
H    -4.24178   -0.31982    0.81493
H    -4.17348    0.07378   -0.74447
N    -1.66042   -2.66570    0.02487
H    -2.39112   -3.06900    0.61137
H    -1.79432   -3.10560   -0.88573
H    -0.79832   -3.07820    0.38157
N    -1.70591   -0.58308    2.10400
H    -0.98061   -1.17558    2.50830
H    -1.56381    0.32692    2.54250
H    -2.57131   -0.93138    2.51680
N    -1.62089   -0.58051   -2.10478
H    -0.95559   -1.25581   -2.48148
H    -2.50579   -0.81821   -2.55318
H    -1.34879    0.30409   -2.53378
