25
 
Fe   -1.68250   -0.56100   -0.00080
N    -1.74282    1.54808    0.01505
H    -2.40292    1.92668    0.69445
H    -0.85592    1.99658    0.24505
H    -2.02142    1.97528   -0.86845
N     0.42658   -0.50223    0.01762
H     0.83748   -0.24893    0.91632
H     0.88168   -1.38083   -0.23078
H     0.81498    0.17487   -0.63908
N    -3.79158   -0.57726   -0.06112
H    -4.20388   -1.47756   -0.30632
H    -4.24678   -0.31986    0.81478
H    -4.17848    0.07374   -0.74462
N    -1.66037   -2.67070    0.02493
H    -2.39107   -3.07400    0.61143
H    -1.79427   -3.11060   -0.88567
H    -0.79827   -3.08320    0.38163
N    -1.70597   -0.58313    2.10900
H    -0.98067   -1.17563    2.51330
H    -1.56387    0.32687    2.54750
H    -2.57137   -0.93143    2.52180
N    -1.62074   -0.58056   -2.10978
H    -0.95544   -1.25586   -2.48648
H    -2.50564   -0.81826   -2.55818
H    -1.34864    0.30404   -2.53878
