25
 
Fe   -1.68250   -0.56100   -0.00080
N    -1.74310    1.55807    0.01513
H    -2.40320    1.93667    0.69453
H    -0.85620    2.00657    0.24513
H    -2.02170    1.98527   -0.86837
N     0.43657   -0.50195    0.01771
H     0.84747   -0.24865    0.91641
H     0.89167   -1.38055   -0.23069
H     0.82497    0.17515   -0.63899
N    -3.80157   -0.57734   -0.06140
H    -4.21387   -1.47764   -0.30660
H    -4.25677   -0.31994    0.81450
H    -4.18847    0.07366   -0.74490
N    -1.66027   -2.68069    0.02505
H    -2.39097   -3.08399    0.61155
H    -1.79417   -3.12059   -0.88555
H    -0.79817   -3.09319    0.38175
N    -1.70608   -0.58323    2.11900
H    -0.98078   -1.17573    2.52330
H    -1.56398    0.32677    2.55750
H    -2.57148   -0.93153    2.53180
N    -1.62045   -0.58065   -2.11977
H    -0.95515   -1.25595   -2.49647
H    -2.50535   -0.81835   -2.56817
H    -1.34835    0.30395   -2.54877
