25
 
Fe   -1.68250   -0.56100   -0.00080
N    -1.74353    1.57307    0.01524
H    -2.40363    1.95167    0.69464
H    -0.85663    2.02157    0.24524
H    -2.02213    2.00027   -0.86826
N     0.45157   -0.50153    0.01784
H     0.86247   -0.24823    0.91654
H     0.90667   -1.38013   -0.23056
H     0.83997    0.17557   -0.63886
N    -3.81657   -0.57746   -0.06183
H    -4.22887   -1.47776   -0.30703
H    -4.27177   -0.32006    0.81407
H    -4.20347    0.07354   -0.74533
N    -1.66011   -2.69569    0.02524
H    -2.39081   -3.09899    0.61174
H    -1.79401   -3.13559   -0.88536
H    -0.79801   -3.10819    0.38194
N    -1.70625   -0.58339    2.13400
H    -0.98095   -1.17589    2.53830
H    -1.56415    0.32661    2.57250
H    -2.57165   -0.93169    2.54680
N    -1.62001   -0.58079   -2.13476
H    -0.95471   -1.25609   -2.51146
H    -2.50491   -0.81849   -2.58316
H    -1.34791    0.30381   -2.56376
