25
 
Fe   -1.68250   -0.56100   -0.00080
N    -1.74396    1.58806    0.01535
H    -2.40406    1.96666    0.69475
H    -0.85706    2.03656    0.24535
H    -2.02256    2.01526   -0.86815
N     0.46656   -0.50111    0.01797
H     0.87746   -0.24781    0.91667
H     0.92166   -1.37971   -0.23043
H     0.85496    0.17599   -0.63873
N    -3.83156   -0.57757   -0.06226
H    -4.24386   -1.47787   -0.30746
H    -4.28676   -0.32017    0.81364
H    -4.21846    0.07343   -0.74576
N    -1.65995   -2.71069    0.02542
H    -2.39065   -3.11399    0.61192
H    -1.79385   -3.15059   -0.88518
H    -0.79785   -3.12319    0.38212
N    -1.70641   -0.58355    2.14899
H    -0.98111   -1.17605    2.55329
H    -1.56431    0.32645    2.58749
H    -2.57181   -0.93185    2.56179
N    -1.61957   -0.58093   -2.14976
H    -0.95427   -1.25623   -2.52646
H    -2.50447   -0.81863   -2.59816
H    -1.34747    0.30367   -2.57876
