25
 
Fe   -1.68300   -0.56010    0.00020
N    -1.75921    1.70354   -0.01913
H    -2.28141    2.07864    0.78147
H    -0.84561    2.17004    0.02407
H    -2.22261    2.11414   -0.83863
N     0.57094   -0.49155    0.01624
H     0.98684   -0.18915    0.90514
H     1.03534   -1.38175   -0.19896
H     0.95044    0.16385   -0.67736
N    -3.93674   -0.56702   -0.07667
H    -4.35874   -1.46072   -0.35527
H    -4.39994   -0.32472    0.80723
H    -4.31094    0.11218   -0.74997
N    -1.67313   -2.82414    0.06694
H    -2.42443   -3.22644    0.64004
H    -1.80183   -3.24844   -0.85926
H    -0.81303   -3.25084    0.43154
N    -1.70385   -0.61957    2.24435
H    -0.92875   -1.15797    2.64945
H    -1.62235    0.31083    2.67075
H    -2.54865   -1.02577    2.66365
N    -1.59290   -0.56299   -2.24305
H    -1.02510   -1.33789   -2.60535
H    -2.50110   -0.66229   -2.71155
H    -1.17470    0.27691   -2.66075
