25
 
Fe   -1.68300   -0.56010    0.00020
N    -1.75904    1.69854   -0.01909
H    -2.28124    2.07364    0.78151
H    -0.84544    2.16504    0.02411
H    -2.22244    2.10914   -0.83859
N     0.56594   -0.49170    0.01620
H     0.98184   -0.18930    0.90510
H     1.03034   -1.38190   -0.19900
H     0.94544    0.16370   -0.67740
N    -3.93174   -0.56700   -0.07650
H    -4.35374   -1.46070   -0.35510
H    -4.39494   -0.32470    0.80740
H    -4.30594    0.11220   -0.74980
N    -1.67316   -2.81914    0.06680
H    -2.42446   -3.22144    0.63990
H    -1.80186   -3.24344   -0.85940
H    -0.81306   -3.24584    0.43140
N    -1.70381   -0.61944    2.23935
H    -0.92871   -1.15784    2.64445
H    -1.62231    0.31096    2.66575
H    -2.54861   -1.02564    2.65865
N    -1.59310   -0.56299   -2.23805
H    -1.02530   -1.33789   -2.60035
H    -2.50130   -0.66229   -2.70655
H    -1.17490    0.27691   -2.65575
