25
 
Fe   -1.68300   -0.56010    0.00020
N    -1.75937    1.70853   -0.01917
H    -2.28157    2.08363    0.78143
H    -0.84577    2.17503    0.02403
H    -2.22277    2.11913   -0.83867
N     0.57594   -0.49139    0.01627
H     0.99184   -0.18899    0.90517
H     1.04034   -1.38159   -0.19893
H     0.95544    0.16401   -0.67733
N    -3.94174   -0.56703   -0.07684
H    -4.36374   -1.46073   -0.35544
H    -4.40494   -0.32473    0.80706
H    -4.31594    0.11217   -0.75014
N    -1.67311   -2.82914    0.06709
H    -2.42441   -3.23144    0.64019
H    -1.80181   -3.25344   -0.85911
H    -0.81301   -3.25584    0.43169
N    -1.70390   -0.61970    2.24934
H    -0.92880   -1.15810    2.65444
H    -1.62240    0.31070    2.67574
H    -2.54870   -1.02590    2.66864
N    -1.59270   -0.56300   -2.24804
H    -1.02490   -1.33790   -2.61034
H    -2.50090   -0.66230   -2.71654
H    -1.17450    0.27690   -2.66574
