25
 
Fe   -1.68300   -0.56010    0.00020
N    -1.75988    1.72352   -0.01930
H    -2.28208    2.09862    0.78130
H    -0.84628    2.19002    0.02390
H    -2.22328    2.13412   -0.83880
N     0.59093   -0.49094    0.01638
H     1.00683   -0.18854    0.90528
H     1.05533   -1.38114   -0.19882
H     0.97043    0.16446   -0.67722
N    -3.95673   -0.56708   -0.07735
H    -4.37873   -1.46078   -0.35595
H    -4.41993   -0.32478    0.80655
H    -4.33093    0.11212   -0.75065
N    -1.67305   -2.84413    0.06753
H    -2.42435   -3.24643    0.64063
H    -1.80175   -3.26843   -0.85867
H    -0.81295   -3.27083    0.43213
N    -1.70404   -0.62010    2.26434
H    -0.92894   -1.15850    2.66944
H    -1.62254    0.31030    2.69074
H    -2.54884   -1.02630    2.68364
N    -1.59210   -0.56302   -2.26303
H    -1.02430   -1.33792   -2.62533
H    -2.50030   -0.66232   -2.73153
H    -1.17390    0.27688   -2.68073
