25
 
Fe   -1.68300   -0.56010    0.00020
N    -1.76022    1.73352   -0.01938
H    -2.28242    2.10862    0.78122
H    -0.84662    2.20002    0.02382
H    -2.22362    2.14412   -0.83888
N     0.60093   -0.49063    0.01645
H     1.01683   -0.18823    0.90535
H     1.06533   -1.38083   -0.19875
H     0.98043    0.16477   -0.67715
N    -3.96672   -0.56711   -0.07769
H    -4.38872   -1.46081   -0.35629
H    -4.42992   -0.32481    0.80621
H    -4.34092    0.11209   -0.75099
N    -1.67300   -2.85413    0.06783
H    -2.42430   -3.25643    0.64093
H    -1.80170   -3.27843   -0.85837
H    -0.81290   -3.28083    0.43243
N    -1.70413   -0.62036    2.27433
H    -0.92903   -1.15876    2.67943
H    -1.62263    0.31004    2.70073
H    -2.54893   -1.02656    2.69363
N    -1.59169   -0.56303   -2.27302
H    -1.02389   -1.33793   -2.63532
H    -2.49989   -0.66233   -2.74152
H    -1.17349    0.27687   -2.69072
