25
 
Fe   -1.68300   -0.56010    0.00020
N    -1.76089    1.75351   -0.01956
H    -2.28309    2.12861    0.78104
H    -0.84729    2.22001    0.02364
H    -2.22429    2.16411   -0.83906
N     0.62092   -0.49003    0.01659
H     1.03682   -0.18763    0.90549
H     1.08532   -1.38023   -0.19861
H     1.00042    0.16537   -0.67701
N    -3.98671   -0.56717   -0.07838
H    -4.40871   -1.46087   -0.35698
H    -4.44991   -0.32487    0.80552
H    -4.36091    0.11203   -0.75168
N    -1.67292   -2.87412    0.06842
H    -2.42422   -3.27642    0.64152
H    -1.80162   -3.29842   -0.85778
H    -0.81282   -3.30082    0.43302
N    -1.70432   -0.62089    2.29433
H    -0.92922   -1.15929    2.69943
H    -1.62282    0.30951    2.72073
H    -2.54912   -1.02709    2.71363
N    -1.59089   -0.56306   -2.29301
H    -1.02309   -1.33796   -2.65531
H    -2.49909   -0.66236   -2.76151
H    -1.17269    0.27684   -2.71071
