25
 
Fe   -1.68300   -0.56010    0.00020
N    -1.76190    1.78349   -0.01981
H    -2.28410    2.15859    0.78079
H    -0.84830    2.24999    0.02339
H    -2.22530    2.19409   -0.83931
N     0.65090   -0.48911    0.01680
H     1.06680   -0.18671    0.90570
H     1.11530   -1.37931   -0.19840
H     1.03040    0.16629   -0.67680
N    -4.01670   -0.56726   -0.07940
H    -4.43870   -1.46096   -0.35800
H    -4.47990   -0.32496    0.80450
H    -4.39090    0.11194   -0.75270
N    -1.67279   -2.90410    0.06930
H    -2.42409   -3.30640    0.64240
H    -1.80149   -3.32840   -0.85690
H    -0.81269   -3.33080    0.43390
N    -1.70460   -0.62169    2.32432
H    -0.92950   -1.16009    2.72942
H    -1.62310    0.30871    2.75072
H    -2.54940   -1.02789    2.74362
N    -1.58969   -0.56310   -2.32299
H    -1.02189   -1.33800   -2.68529
H    -2.49789   -0.66240   -2.79149
H    -1.17149    0.27680   -2.74069
