25
 
Fe   -1.68300   -0.56010    0.00020
N    -1.76173    1.77849   -0.01977
H    -2.28393    2.15359    0.78083
H    -0.84813    2.24499    0.02343
H    -2.22513    2.18909   -0.83927
N     0.64591   -0.48927    0.01677
H     1.06181   -0.18687    0.90567
H     1.11031   -1.37947   -0.19843
H     1.02541    0.16613   -0.67683
N    -4.01170   -0.56725   -0.07923
H    -4.43370   -1.46095   -0.35783
H    -4.47490   -0.32495    0.80467
H    -4.38590    0.11195   -0.75253
N    -1.67281   -2.89911    0.06915
H    -2.42411   -3.30141    0.64225
H    -1.80151   -3.32341   -0.85705
H    -0.81271   -3.32581    0.43375
N    -1.70455   -0.62156    2.31932
H    -0.92945   -1.15996    2.72442
H    -1.62305    0.30884    2.74572
H    -2.54935   -1.02776    2.73862
N    -1.58989   -0.56309   -2.31799
H    -1.02209   -1.33799   -2.68029
H    -2.49809   -0.66239   -2.78649
H    -1.17169    0.27681   -2.73569
