25
 
Fe   -1.68300   -0.56010    0.00020
N    -1.76207    1.78848   -0.01985
H    -2.28427    2.16358    0.78075
H    -0.84847    2.25498    0.02335
H    -2.22547    2.19908   -0.83935
N     0.65590   -0.48896    0.01684
H     1.07180   -0.18656    0.90574
H     1.12030   -1.37916   -0.19836
H     1.03540    0.16644   -0.67676
N    -4.02169   -0.56728   -0.07957
H    -4.44369   -1.46098   -0.35817
H    -4.48489   -0.32498    0.80433
H    -4.39589    0.11192   -0.75287
N    -1.67276   -2.90910    0.06945
H    -2.42406   -3.31140    0.64255
H    -1.80146   -3.33340   -0.85675
H    -0.81266   -3.33580    0.43405
N    -1.70464   -0.62182    2.32931
H    -0.92954   -1.16022    2.73441
H    -1.62314    0.30858    2.75571
H    -2.54944   -1.02802    2.74861
N    -1.58949   -0.56310   -2.32798
H    -1.02169   -1.33800   -2.69028
H    -2.49769   -0.66240   -2.79648
H    -1.17129    0.27680   -2.74568
