25
 
Fe   -1.68300   -0.56010    0.00020
N    -1.76240    1.79848   -0.01994
H    -2.28460    2.17358    0.78066
H    -0.84880    2.26498    0.02326
H    -2.22580    2.20908   -0.83944
N     0.66590   -0.48866    0.01691
H     1.08180   -0.18626    0.90581
H     1.13030   -1.37886   -0.19829
H     1.04540    0.16674   -0.67669
N    -4.03169   -0.56731   -0.07991
H    -4.45369   -1.46101   -0.35851
H    -4.49489   -0.32501    0.80399
H    -4.40589    0.11189   -0.75321
N    -1.67272   -2.91910    0.06974
H    -2.42402   -3.32140    0.64284
H    -1.80142   -3.34340   -0.85646
H    -0.81262   -3.34580    0.43434
N    -1.70474   -0.62209    2.33931
H    -0.92964   -1.16049    2.74441
H    -1.62324    0.30831    2.76571
H    -2.54954   -1.02829    2.75861
N    -1.58909   -0.56312   -2.33797
H    -1.02129   -1.33802   -2.70027
H    -2.49729   -0.66242   -2.80647
H    -1.17089    0.27678   -2.75567
